.subckt dti_55g_10t_nand2x1 VDD VSS B A Z
mp1 Z A VDD VDD  pch l=0.06u w=0.735u
mp2 Z B VDD VDD  pch l=0.06u w=0.735u
mn2 N1N43 B VSS VSS  nch l=0.06u w=0.525u
mn1 Z A N1N43 VSS  nch l=0.06u w=0.525u
.ends

