.subckt dti_55g_10t_bufx1 VDD VSS Z A
m1i60 Z N1N47 VDD VDD  pch l=0.06u w=0.735u
m1i63 Z N1N47 VSS VSS  nch l=0.06u w=0.525u
mnmos_a N1N47 A VSS VSS  nch l=0.06u w=0.525u
mpmos_a N1N47 A VDD VDD  pch l=0.06u w=0.735u
.ends

