.subckt dti_55g_10t_nor2x1 VDD VSS A B Z
mp1 Z A N1N71 VDD  pch l=0.06u w=0.735u
mn1 Z A VSS VSS  nch l=0.06u w=0.525u
mn2 Z B VSS VSS  nch l=0.06u w=0.525u
mp2 N1N71 B VDD VDD  pch l=0.06u w=0.735u
.ends

