.subckt dti_55g_10t_or3x1 VDD VSS C Z A B
mp4 N1N85 C VDD VDD  pch l=0.06u w=0.735u
mn4 N1N47 C VSS VSS  nch l=0.06u w=0.525u
mp2 N1N47 A N1N71 VDD  pch l=0.06u w=0.735u
mp1 Z N1N47 VDD VDD  pch l=0.06u w=0.735u
mn1 Z N1N47 VSS VSS  nch l=0.06u w=0.525u
mn2 N1N47 A VSS VSS  nch l=0.06u w=0.525u
mn3 N1N47 B VSS VSS  nch l=0.06u w=0.525u
mp3 N1N71 B N1N85 VDD  pch l=0.06u w=0.735u
.ends

