.subckt dti_gen_inv$1 VDD VSS A Z
m1i3 Z A VDD VDD  pch l=0.06u w=0.15u
m1i4 Z A VSS VSS  nch l=0.06u w=0.15u
.ends

.subckt dti_gen_inv$2 VDD VSS A Z
m1i3 Z A VDD VDD  pch l=0.06u w=0.15u
m1i4 Z A VSS VSS  nch l=0.06u w=0.15u
.ends

.subckt dti_gen_tx$1 VDD VSS PG NG IN OUT
m1i3 IN PG OUT VDD  pch l=0.06u w=0.15u
m1i2 IN NG OUT VSS  nch l=0.06u w=0.15u
.ends

.subckt dti_55g_10t_ffnqqnbcka01x1 VDD VSS CKN D Q RN QN
xinv_clknb VDD VSS CLKNB CLKN  dti_gen_inv$1 
xinv_ckn VDD VSS CKN CLKNB  dti_gen_inv$2 
xinv_q VDD VSS RSB Q  dti_gen_inv$1 
xinv_qn VDD VSS SL QN  dti_gen_inv$1 
xtx_sl VDD VSS CLKN CLKNB RM SL  dti_gen_tx$1 
xinv_rn VDD VSS RN RNB  dti_gen_inv$2 
mpmos_fbrm N1N558 RM VDD VDD  pch l=0.06u w=0.15u
mpmos_clkn MLB CLKN N1N558 VDD  pch l=0.06u w=0.15u
mpmos_rnb N1N499 RNB VDD VDD  pch l=0.06u w=0.15u
mpmos_fbrsb N1N590 RSB N1N499 VDD  pch l=0.06u w=0.15u
mpmos_clknb SL CLKNB N1N590 VDD  pch l=0.06u w=0.15u
mnmos_clknb MLB CLKNB N1N287 VSS  nch l=0.06u w=0.15u
mnmos_fbrm N1N287 RM VSS VSS  nch l=0.06u w=0.15u
mnmos_clkn SL CLKN N1N532 VSS  nch l=0.06u w=0.15u
mnmos_fbrsb N1N532 RSB VSS VSS  nch l=0.06u w=0.15u
mnmos_rnb N1N532 RNB VSS VSS  nch l=0.06u w=0.15u
mnmos_clkn_1 N1N515 CLKN VSS VSS  nch l=0.06u w=0.525u m=2
mnmos_d MLB D N1N515 VSS  nch l=0.06u w=0.525u m=2
mpmos_d MLB D N1N525 VDD  pch l=0.06u w=0.735u m=2
mpmos_clknb_1 N1N525 CLKNB VDD VDD  pch l=0.06u w=0.735u m=2
xinv_sl VDD VSS SL RSB  dti_gen_inv$1 
xnor2_rm VDD VSS MLB RNB RM dti_gen_nor2p wn1=0.735u wn2=0.735u wp1=0.735u  wp2=0.735u 
.ends

.subckt dti_gen_nor2p VDD VSS A B Z
mp1 N1N29 B VDD VDD  pch l=0.06u w=0.15u
mp2 Z A N1N29 VDD  pch l=0.06u w=0.15u
mn2 Z A VSS VSS  nch l=0.06u w=0.15u
mn1 Z B VSS VSS  nch l=0.06u w=0.15u
.ends

